 Case_ID      AeroDyn15       HydroDyn  QBladeOcean  QBladeOcean  QBladeOcean         QSim            QSim       QSim          QSim            QSim     QSim   QTurbSim   Turbine  
              tau1_const      WAVETYPE   PEAKPERIOD    RANDSEED    SIGHEIGHT     INITIAL_PITCH    INITIAL_YAW  MEANINF    RPMPRESCRIBED     STOREFROM   TMax  RandSeed1   WAKETYPE 
    0     7.908388068906989      2          13.1      304524126       8.5      2.422264893032965       0         12.0   12.126090902239644     60.0    180.0  1501552846     1     
    1     7.908388068906989      2          13.1      1192975140      8.5      2.422264893032965       0         12.0   12.126090902239644     60.0    180.0  488200390      1     
    2     4.064940658805065      2          14.1      1668389755      9.8      14.89443214656687       0         18.0   12.126090902239644     60.0    180.0  1693606511     1     
    3     4.064940658805065      2          14.1      489172031       9.8      14.89443214656687       0         18.0   12.126090902239644     60.0    180.0  680233354      1     
    4     2.9608077362037455     2          14.1      349375909       9.9      22.00301854927772       0         24.0   12.126090902239644     60.0    180.0  438466540      1     
    5     2.9608077362037455     2          14.1      208787680       9.9      22.00301854927772       0         24.0   12.126090902239644     60.0    180.0  1712329281     1     
