         case_name DLC  (AeroDyn15, tau1_const)  (HydroDyn, WAVETYPE)  (QBladeOcean, PEAKPERIOD)  (QBladeOcean, RANDSEED)  (QBladeOcean, SIGHEIGHT)  (QSim, INITIAL_PITCH)  (QSim, INITIAL_YAW)  (QSim, MEANINF)  (QSim, RPMPRESCRIBED)  (QSim, STOREFROM)  (QSim, TMax)  (QTurbSim, RandSeed1)  (Turbine, WAKETYPE)  (QSim, WNDTYPE)                           (QTurbSim, TurbSimInp)
DLC1.6_0_nrel5mw_0 1.6                 7.908388                     2                       13.1                304524126                       8.5               2.422265                    0             12.0              12.126091               10.0          25.0             1501552846                    1                1 wind/nrel5mw_NTM_U12.000000_Seed1501552846.0.bts
DLC1.6_0_nrel5mw_1 1.6                 7.908388                     2                       13.1               1192975140                       8.5               2.422265                    0             12.0              12.126091               10.0          25.0              488200390                    1                1  wind/nrel5mw_NTM_U12.000000_Seed488200390.0.bts
DLC1.6_0_nrel5mw_2 1.6                 4.064941                     2                       14.1               1668389755                       9.8              14.894432                    0             18.0              12.126091               10.0          25.0             1693606511                    1                1 wind/nrel5mw_NTM_U18.000000_Seed1693606511.0.bts
DLC1.6_0_nrel5mw_3 1.6                 4.064941                     2                       14.1                489172031                       9.8              14.894432                    0             18.0              12.126091               10.0          25.0              680233354                    1                1  wind/nrel5mw_NTM_U18.000000_Seed680233354.0.bts
DLC1.6_0_nrel5mw_4 1.6                 2.960808                     2                       14.1                349375909                       9.9              22.003019                    0             24.0              12.126091               10.0          25.0              438466540                    1                1  wind/nrel5mw_NTM_U24.000000_Seed438466540.0.bts
DLC1.6_0_nrel5mw_5 1.6                 2.960808                     2                       14.1                208787680                       9.9              22.003019                    0             24.0              12.126091               10.0          25.0             1712329281                    1                1 wind/nrel5mw_NTM_U24.000000_Seed1712329281.0.bts